*SPEF "IEEE 1481-1998"
*DESIGN "counter"
*DATE "Sat Oct 16 22:29:19 2021"
*VENDOR "Cadence Design Systems, Inc."
*PROGRAM "Innovus"
*VERSION "16.26-s040_1"
*DESIGN_FLOW "PIN_CAP NONE" "NAME_SCOPE LOCAL"
*DIVIDER /
*DELIMITER :
*BUS_DELIMITER []
*T_UNIT 1 NS
*C_UNIT 1 PF
*R_UNIT 1 OHM
*L_UNIT 1 HENRY

// MMMC spef file for corner 'Default_rc_corner'

*NAME_MAP

*1 clk
*2 reset
*3 Q0
*4 Q1
*5 Q2
*6 n_0
*7 n_1
*8 n_2
*9 n_3
*10 n_4
*11 n_5
*12 n_6
*13 g198
*14 g200
*15 g202
*16 y_reg\[0\]
*17 g204
*18 g203
*19 y_reg\[1\]
*20 y_reg\[2\]


*PORTS

*1 I *C 0 0
*2 I *C 0 0
*3 O *C 0 0
*4 O *C 0 0
*5 O *C 0 0


*D_NET *1 0.000955629

*CONN
*I *19:CKB I *C 5 6 *L 0.000653 *D DFCM2RA
*I *16:CKB I *C 9 6 *L 0.000654 *D DFCQM2RA
*I *20:CKB I *C 7 9 *L 0.000653 *D DFCM2RA
*P *1 I *C 0 0 *L 0

*CAP
1 *1:0 1.32843e-05
2 *1:1 2.90068e-05
3 *1:2 8.89183e-05
4 *19:CKB 1.25289e-05
5 *1:4 0.000206334
6 *1:5 0.000134194
7 *1:6 0.000179426
8 *1:7 2.90068e-05
9 *1:8 0.000179426
10 *16:CKB 1.25289e-05
11 *1:11 2.44058e-05
12 *1:12 2.07562e-05
13 *20:CKB 1.25289e-05
14 *1 1.32843e-05

*RES
1 *1:0 *1 0.0868923
2 *1:12 *1:15 0.311448
3 *1:12 *20:CKB 0.6
4 *1:11 *1:13 0.311448
5 *1:11 *1:12 0.6
6 *1:8 *1:11 0.6
7 *1:7 *16:CKB 0.6
8 *1:7 *1:9 0.311448
9 *1:6 *1:8 2.66996
10 *1:5 *1:7 0.6
11 *1:4 *1:6 0.6
12 *1:4 *1:5 1.92981
13 *1:2 *1:4 1.18758
14 *1:1 *19:CKB 0.6
15 *1:1 *1:2 0.6
16 *1:0 *1:1 0.311448
*END

*D_NET *2 0.000543246

*CONN
*I *18:B I *C 10 7 *L 0.000973 *D AOI211M2R
*I *15:B I *C 7 7 *L 0.00107 *D NR2B1M2R
*I *13:A I *C 6 9 *L 0.00107 *D NR2M2R
*P *2 I *C 0 0 *L 0

*CAP
1 *2:3 0.000151004
2 *2:4 0.000151004
3 *2:5 1.78891e-05
4 *2:6 2.68337e-05
5 *15:B 1.32843e-05
6 *2:8 2.68337e-05
7 *2:9 3.57783e-05
8 *2:10 6.2612e-05
9 *2:11 4.47229e-05
10 *2 1.32843e-05

*RES
1 *15:B *2 0.0868923
2 *2:11 *13:A 0.6
3 *2:10 *2:11 0.744391
4 *2:9 *2:10 0.297756
5 *2:8 *2:9 0.297756
6 *2:6 *2:8 0.148878
7 *2:5 *15:B 0.6
8 *2:5 *2:6 0.297756
9 *2:4 *2:5 0.6
10 *2:3 *2:4 2.00324
11 *2:1 *2:3 0.6
12 *2:1 *18:B 0.6
13 *2:0 *2:1 0.311448
*END

*D_NET *3 0.00058297

*CONN
*I *14:A2 I *C 9 7 *L 0.00107 *D AOI32M2R
*I *18:C I *C 10 8 *L 0.000966 *D AOI211M2R
*I *17:S I *C 12 7 *L 0.00151 *D MXB2M1RA
*I *16:Q O *C 13 6 *L 0 *D DFCQM2RA
*P *3 O *C 0 0 *L 0

*CAP
1 *3:0 1.32843e-05
2 *3:2 6.60643e-05
3 *3:4 0.000151004
4 *3:5 3.57783e-05
5 *3:6 0.000122691
6 *3:7 3.57783e-05
7 *3:8 8.94457e-06
8 *3:9 3.7751e-05
9 *3:11 8.94457e-06
10 *3:13 4.47229e-05
11 *3:15 4.47229e-05
12 *3 1.32843e-05

*RES
1 *3:0 *3 0.0868923
2 *3:15 *16:Q 0.6
3 *3:13 *3:15 0.744391
4 *3:11 *17:S 0.6
5 *3:9 *3:13 0.6
6 *3:8 *3:12 0.163139
7 *3:8 *3:11 0.148878
8 *3:7 *18:C 0.6
9 *3:6 *3:9 0.500811
10 *3:6 *3:8 0.6
11 *3:5 *3:7 0.595512
12 *3:4 *3:6 1.12682
13 *3:4 *3:5 0.6
14 *3:2 *3:4 0.876419
15 *3:1 *14:A2 0.6
16 *3:1 *3:2 0.6
17 *3:0 *3:1 0.311448
*END

*D_NET *4 0.000356464

*CONN
*I *17:B I *C 11 7 *L 0.001 *D MXB2M1RA
*I *14:A3 I *C 9 7 *L 0.00102 *D AOI32M2R
*I *19:Q O *C 9 6 *L 0 *D DFCM2RA
*P *4 O *C 0 0 *L 0

*CAP
1 *4:2 7.5502e-05
2 *4:4 7.5502e-05
3 *4:5 3.57783e-05
4 *4:7 6.2612e-05
5 *4:8 5.36674e-05
6 *4:9 2.68337e-05
7 *19:Q 1.32843e-05
8 *4 1.32843e-05

*RES
1 *19:Q *4 0.0868923
2 *4:9 *19:Q 0.6
3 *4:8 *4:9 0.446634
4 *4:7 *4:8 0.446634
5 *4:5 *4:7 0.595512
6 *4:5 *14:A3 0.6
7 *4:4 *4:5 0.6
8 *4:2 *4:4 1.00162
9 *4:1 *17:B 0.6
10 *4:1 *4:2 0.6
11 *4:0 *4:1 0.311448
*END

*D_NET *5 0.000462813

*CONN
*I *18:A2 I *C 9 7 *L 0.000939 *D AOI211M2R
*I *20:Q O *C 10 9 *L 0 *D DFCM2RA
*I *14:B2 I *C 8 7 *L 0.000993 *D AOI32M2R
*P *5 O *C 0 0 *L 0

*CAP
1 *5:0 2.68337e-05
2 *5:1 8.05012e-05
3 *5:2 6.60643e-05
4 *5:3 8.94457e-05
5 *5:5 6.60643e-05
6 *5:6 4.47229e-05
7 *5:7 4.01181e-05
8 *5:8 8.94457e-06
9 *5:9 2.68337e-05
10 *5 1.32843e-05

*RES
1 *5:7 *5 0.0868923
2 *5:9 *14:B2 0.6
3 *5:8 *20:Q 0.6
4 *5:7 *5:9 0.446634
5 *5:6 *5:8 0.148878
6 *5:5 *5:7 0.6
7 *5:3 *5:6 0.595512
8 *5:2 *5:5 0.876419
9 *5:1 *18:A2 0.6
10 *5:1 *5:3 0.893269
11 *5:0 *5:2 0.6
12 *5:0 *5:1 0.446634
*END

*D_NET *6 0.000349757

*CONN
*I *20:QB O *C 11 9 *L 0 *D DFCM2RA
*I *14:A1 I *C 9 7 *L 0.00111 *D AOI32M2R

*CAP
1 *6:3 9.43775e-05
2 *6:4 9.43775e-05
3 *6:5 5.36674e-05
4 *6:6 6.2612e-05
5 *6:7 2.68337e-05
6 *6:8 1.78891e-05

*RES
1 *6:8 *14:A1 0.6
2 *6:7 *6:8 0.297756
3 *6:6 *6:7 0.148878
4 *6:5 *6:6 0.893269
5 *6:4 *6:5 0.6
6 *6:3 *6:4 1.25203
7 *6:1 *6:3 0.6
8 *6:1 *20:QB 0.6
9 *6:0 *6:1 0.311448
*END

*D_NET *7 0.000421314

*CONN
*I *18:A1 I *C 10 7 *L 0.001 *D AOI211M2R
*I *19:QB O *C 9 5 *L 0 *D DFCM2RA
*I *17:A I *C 12 7 *L 0.000766 *D MXB2M1RA

*CAP
1 *7:0 2.68337e-05
2 *7:1 4.47229e-05
3 *7:3 9.43775e-05
4 *7:4 4.47229e-05
5 *7:5 9.43775e-05
6 *7:6 3.57783e-05
7 *7:7 3.57783e-05
8 *7:8 8.94457e-06
9 *7:9 3.57783e-05

*RES
1 *7:9 *17:A 0.6
2 *7:8 *19:QB 0.6
3 *7:7 *7:9 0.595512
4 *7:6 *7:8 0.148878
5 *7:5 *7:7 0.6
6 *7:4 *7:6 0.446634
7 *7:3 *7:5 1.25203
8 *7:1 *7:4 0.297756
9 *7:1 *7:3 0.6
10 *7:0 *18:A1 0.6
11 *7:0 *7:1 0.446634
*END

*D_NET *8 0.000125224

*CONN
*I *18:Z O *C 10 7 *L 0 *D AOI211M2R
*I *16:D I *C 10 6 *L 0.000814 *D DFCQM2RA

*CAP
1 *8:1 6.2612e-05
2 *8:2 6.2612e-05

*RES
1 *8:2 *16:D 0.6
2 *8:1 *8:2 1.04215
3 *18:Z *8:1 0.6
*END

*D_NET *9 0.000412302

*CONN
*I *15:NA I *C 8 8 *L 0.000535 *D NR2B1M2R
*I *14:B1 I *C 9 7 *L 0.00112 *D AOI32M2R
*I *17:Z O *C 11 7 *L 0 *D MXB2M1RA

*CAP
1 *9:2 3.7751e-05
2 *9:4 0.000179317
3 *9:5 0.000141566
4 *9:6 1.78891e-05
5 *9:7 8.94457e-06
6 *9:8 1.78891e-05
7 *9:9 8.94457e-06

*RES
1 *9:9 *17:Z 0.6
2 *9:9 *9:11 0.163139
3 *9:8 *14:B1 0.6
4 *9:7 *9:9 0.148878
5 *9:6 *9:8 0.297756
6 *9:5 *9:7 0.6
7 *9:4 *9:6 0.6
8 *9:4 *9:5 1.87804
9 *9:2 *9:4 0.500811
10 *9:1 *15:NA 0.6
11 *9:1 *9:2 0.6
12 *9:0 *9:1 0.311448
*END

*D_NET *10 0.000162975

*CONN
*I *15:Z O *C 7 7 *L 0 *D NR2B1M2R
*I *19:D I *C 6 6 *L 0.000814 *D DFCM2RA

*CAP
1 *15:Z 1.88755e-05
2 *10:1 1.88755e-05
3 *10:2 6.2612e-05
4 *10:3 6.2612e-05

*RES
1 *10:3 *19:D 0.6
2 *10:2 *10:3 1.04215
3 *10:1 *10:2 0.6
4 *15:Z *10:1 0.250405
*END

*D_NET *11 0.000268337

*CONN
*I *14:Z O *C 8 7 *L 0 *D AOI32M2R
*I *13:B I *C 6 9 *L 0.00106 *D NR2M2R

*CAP
1 *11:1 5.36674e-05
2 *11:2 0.000116279
3 *11:3 8.05011e-05
4 *11:4 1.78891e-05

*RES
1 *11:4 *13:B 0.6
2 *11:3 *11:4 0.297756
3 *11:2 *11:3 1.04215
4 *11:1 *11:2 0.893269
5 *14:Z *11:1 0.6
*END

*D_NET *12 0.000161002

*CONN
*I *13:Z O *C 7 9 *L 0 *D NR2M2R
*I *20:D I *C 8 9 *L 0.000814 *D DFCM2RA

*CAP
1 *12:1 8.94457e-06
2 *12:2 6.2612e-05
3 *12:3 7.15566e-05
4 *12:4 1.78891e-05

*RES
1 *12:4 *20:D 0.6
2 *12:3 *12:4 0.297756
3 *12:2 *12:3 0.893269
4 *12:1 *12:2 0.148878
5 *13:Z *12:1 0.6
*END

